[General]
sim-time-limit = 1200s
tkenv-plugin-path = ../../../etc/plugins
**.vector-recording = false

network = small_network
