[General]
check-signals = true
record-eventlog = true
sim-time-limit = 1200s
#tkenv-plugin-path = ../../../etc/plugins
**.vector-recording = true
**.scalar-recording = true

# Record all statistics
**.result-recording-modes=all

network = small_network

# Scheduling parameters for all modules:

# Tick length 80ns
**.scheduler.tick = 80ns

# Maximum clock drift of 200ppm
**.scheduler.oscillator.max_drift = 200ppm
# Maximum clock drift change of 0.1ps per cycle
**.scheduler.oscillator.drift_change =  uniform(-50ppm,50ppm)
# precission of synchronisation
**.precission = 500ns


include node1.ini
include node2.ini
include node3.ini
include switch1.ini